
---------- Begin Simulation Statistics ----------
final_tick                                57996355590                       # Number of ticks from beginning of simulation (restored from checkpoints and never reset)
host_inst_rate                                 159909                       # Simulator instruction rate (inst/s)
host_mem_usage                                 691640                       # Number of bytes of host memory used
host_op_rate                                   160223                       # Simulator op (including micro ops) rate (op/s)
host_seconds                                   625.36                       # Real time elapsed on the host
host_tick_rate                               92741152                       # Simulator tick rate (ticks/s)
sim_freq                                 1000000000000                       # Frequency of simulated ticks
sim_insts                                   100000001                       # Number of instructions simulated
sim_ops                                     100196363                       # Number of ops (including micro ops) simulated
sim_seconds                                  0.057996                       # Number of seconds simulated
sim_ticks                                 57996355590                       # Number of ticks simulated
system.cpu.branchPred.BTBCorrect                    0                       # Number of correct BTB predictions (this stat may not work properly.
system.cpu.branchPred.BTBHitPct             99.694597                       # BTB Hit Percentage
system.cpu.branchPred.BTBHits                 2095393                       # Number of BTB hits
system.cpu.branchPred.BTBLookups              2101812                       # Number of BTB lookups
system.cpu.branchPred.RASInCorrect                  5                       # Number of incorrect RAS predictions.
system.cpu.branchPred.condIncorrect             81341                       # Number of conditional branches incorrect
system.cpu.branchPred.condPredicted           3727667                       # Number of conditional branches predicted
system.cpu.branchPred.indirectHits                291                       # Number of indirect target hits.
system.cpu.branchPred.indirectLookups             808                       # Number of indirect predictor lookups.
system.cpu.branchPred.indirectMisses              517                       # Number of indirect misses.
system.cpu.branchPred.lookups                 4477741                       # Number of BP lookups
system.cpu.branchPred.usedRAS                   65338                       # Number of times the RAS was used to get a target.
system.cpu.branchPredindirectMispredicted          171                       # Number of mispredicted indirect branches.
system.cpu.committedInsts                   100000001                       # Number of instructions committed
system.cpu.committedOps                     100196363                       # Number of ops (including micro ops) committed
system.cpu.cpi                               1.741632                       # CPI: cycles per instruction
system.cpu.discardedOps                        190645                       # Number of ops (including micro ops) which were discarded before commit
system.cpu.dtb.accesses                             0                       # DTB accesses
system.cpu.dtb.align_faults                         0                       # Number of TLB faults due to alignment restrictions
system.cpu.dtb.domain_faults                        0                       # Number of TLB faults due to domain restrictions
system.cpu.dtb.flush_entries                        0                       # Number of entries that have been flushed from TLB
system.cpu.dtb.flush_tlb                            0                       # Number of times complete TLB was flushed
system.cpu.dtb.flush_tlb_asid                       0                       # Number of times TLB was flushed by ASID
system.cpu.dtb.flush_tlb_mva                        0                       # Number of times TLB was flushed by MVA
system.cpu.dtb.flush_tlb_mva_asid                   0                       # Number of times TLB was flushed by MVA & ASID
system.cpu.dtb.hits                                 0                       # DTB hits
system.cpu.dtb.inst_accesses                        0                       # ITB inst accesses
system.cpu.dtb.inst_hits                            0                       # ITB inst hits
system.cpu.dtb.inst_misses                          0                       # ITB inst misses
system.cpu.dtb.misses                               0                       # DTB misses
system.cpu.dtb.perms_faults                         0                       # Number of TLB faults due to permissions restrictions
system.cpu.dtb.prefetch_faults                      0                       # Number of TLB faults due to prefetch
system.cpu.dtb.read_accesses                        0                       # DTB read accesses
system.cpu.dtb.read_hits                            0                       # DTB read hits
system.cpu.dtb.read_misses                          0                       # DTB read misses
system.cpu.dtb.stage2_mmu.stage2_tlb.accesses            0                       # DTB accesses
system.cpu.dtb.stage2_mmu.stage2_tlb.align_faults            0                       # Number of TLB faults due to alignment restrictions
system.cpu.dtb.stage2_mmu.stage2_tlb.domain_faults            0                       # Number of TLB faults due to domain restrictions
system.cpu.dtb.stage2_mmu.stage2_tlb.flush_entries            0                       # Number of entries that have been flushed from TLB
system.cpu.dtb.stage2_mmu.stage2_tlb.flush_tlb            0                       # Number of times complete TLB was flushed
system.cpu.dtb.stage2_mmu.stage2_tlb.flush_tlb_asid            0                       # Number of times TLB was flushed by ASID
system.cpu.dtb.stage2_mmu.stage2_tlb.flush_tlb_mva            0                       # Number of times TLB was flushed by MVA
system.cpu.dtb.stage2_mmu.stage2_tlb.flush_tlb_mva_asid            0                       # Number of times TLB was flushed by MVA & ASID
system.cpu.dtb.stage2_mmu.stage2_tlb.hits            0                       # DTB hits
system.cpu.dtb.stage2_mmu.stage2_tlb.inst_accesses            0                       # ITB inst accesses
system.cpu.dtb.stage2_mmu.stage2_tlb.inst_hits            0                       # ITB inst hits
system.cpu.dtb.stage2_mmu.stage2_tlb.inst_misses            0                       # ITB inst misses
system.cpu.dtb.stage2_mmu.stage2_tlb.misses            0                       # DTB misses
system.cpu.dtb.stage2_mmu.stage2_tlb.perms_faults            0                       # Number of TLB faults due to permissions restrictions
system.cpu.dtb.stage2_mmu.stage2_tlb.prefetch_faults            0                       # Number of TLB faults due to prefetch
system.cpu.dtb.stage2_mmu.stage2_tlb.read_accesses            0                       # DTB read accesses
system.cpu.dtb.stage2_mmu.stage2_tlb.read_hits            0                       # DTB read hits
system.cpu.dtb.stage2_mmu.stage2_tlb.read_misses            0                       # DTB read misses
system.cpu.dtb.stage2_mmu.stage2_tlb.walker.walkRequestOrigin_Requested::Data            0                       # Table walker requests started/completed, data/inst
system.cpu.dtb.stage2_mmu.stage2_tlb.walker.walkRequestOrigin_Requested::Inst            0                       # Table walker requests started/completed, data/inst
system.cpu.dtb.stage2_mmu.stage2_tlb.walker.walkRequestOrigin_Requested::total            0                       # Table walker requests started/completed, data/inst
system.cpu.dtb.stage2_mmu.stage2_tlb.walker.walkRequestOrigin_Completed::Data            0                       # Table walker requests started/completed, data/inst
system.cpu.dtb.stage2_mmu.stage2_tlb.walker.walkRequestOrigin_Completed::Inst            0                       # Table walker requests started/completed, data/inst
system.cpu.dtb.stage2_mmu.stage2_tlb.walker.walkRequestOrigin_Completed::total            0                       # Table walker requests started/completed, data/inst
system.cpu.dtb.stage2_mmu.stage2_tlb.walker.walkRequestOrigin::total            0                       # Table walker requests started/completed, data/inst
system.cpu.dtb.stage2_mmu.stage2_tlb.walker.walks            0                       # Table walker walks requested
system.cpu.dtb.stage2_mmu.stage2_tlb.write_accesses            0                       # DTB write accesses
system.cpu.dtb.stage2_mmu.stage2_tlb.write_hits            0                       # DTB write hits
system.cpu.dtb.stage2_mmu.stage2_tlb.write_misses            0                       # DTB write misses
system.cpu.dtb.walker.walkRequestOrigin_Requested::Data            0                       # Table walker requests started/completed, data/inst
system.cpu.dtb.walker.walkRequestOrigin_Requested::Inst            0                       # Table walker requests started/completed, data/inst
system.cpu.dtb.walker.walkRequestOrigin_Requested::total            0                       # Table walker requests started/completed, data/inst
system.cpu.dtb.walker.walkRequestOrigin_Completed::Data            0                       # Table walker requests started/completed, data/inst
system.cpu.dtb.walker.walkRequestOrigin_Completed::Inst            0                       # Table walker requests started/completed, data/inst
system.cpu.dtb.walker.walkRequestOrigin_Completed::total            0                       # Table walker requests started/completed, data/inst
system.cpu.dtb.walker.walkRequestOrigin::total            0                       # Table walker requests started/completed, data/inst
system.cpu.dtb.walker.walks                         0                       # Table walker walks requested
system.cpu.dtb.write_accesses                       0                       # DTB write accesses
system.cpu.dtb.write_hits                           0                       # DTB write hits
system.cpu.dtb.write_misses                         0                       # DTB write misses
system.cpu.fetch2.amo_instructions                  0                       # Number of memory atomic instructions successfully decoded
system.cpu.fetch2.fp_instructions                   0                       # Number of floating point instructions successfully decoded
system.cpu.fetch2.int_instructions           42610072                       # Number of integer instructions successfully decoded
system.cpu.fetch2.load_instructions          43402302                       # Number of memory load instructions successfully decoded
system.cpu.fetch2.store_instructions         11001400                       # Number of memory store instructions successfully decoded
system.cpu.fetch2.vec_instructions                  0                       # Number of SIMD instructions successfully decoded
system.cpu.idleCycles                        41380611                       # Total number of cycles that the object has spent stopped
system.cpu.ipc                               0.574174                       # IPC: instructions per cycle
system.cpu.itb.accesses                             0                       # DTB accesses
system.cpu.itb.align_faults                         0                       # Number of TLB faults due to alignment restrictions
system.cpu.itb.domain_faults                        0                       # Number of TLB faults due to domain restrictions
system.cpu.itb.flush_entries                        0                       # Number of entries that have been flushed from TLB
system.cpu.itb.flush_tlb                            0                       # Number of times complete TLB was flushed
system.cpu.itb.flush_tlb_asid                       0                       # Number of times TLB was flushed by ASID
system.cpu.itb.flush_tlb_mva                        0                       # Number of times TLB was flushed by MVA
system.cpu.itb.flush_tlb_mva_asid                   0                       # Number of times TLB was flushed by MVA & ASID
system.cpu.itb.hits                                 0                       # DTB hits
system.cpu.itb.inst_accesses                        0                       # ITB inst accesses
system.cpu.itb.inst_hits                            0                       # ITB inst hits
system.cpu.itb.inst_misses                          0                       # ITB inst misses
system.cpu.itb.misses                               0                       # DTB misses
system.cpu.itb.perms_faults                         0                       # Number of TLB faults due to permissions restrictions
system.cpu.itb.prefetch_faults                      0                       # Number of TLB faults due to prefetch
system.cpu.itb.read_accesses                        0                       # DTB read accesses
system.cpu.itb.read_hits                            0                       # DTB read hits
system.cpu.itb.read_misses                          0                       # DTB read misses
system.cpu.itb.stage2_mmu.stage2_tlb.accesses            0                       # DTB accesses
system.cpu.itb.stage2_mmu.stage2_tlb.align_faults            0                       # Number of TLB faults due to alignment restrictions
system.cpu.itb.stage2_mmu.stage2_tlb.domain_faults            0                       # Number of TLB faults due to domain restrictions
system.cpu.itb.stage2_mmu.stage2_tlb.flush_entries            0                       # Number of entries that have been flushed from TLB
system.cpu.itb.stage2_mmu.stage2_tlb.flush_tlb            0                       # Number of times complete TLB was flushed
system.cpu.itb.stage2_mmu.stage2_tlb.flush_tlb_asid            0                       # Number of times TLB was flushed by ASID
system.cpu.itb.stage2_mmu.stage2_tlb.flush_tlb_mva            0                       # Number of times TLB was flushed by MVA
system.cpu.itb.stage2_mmu.stage2_tlb.flush_tlb_mva_asid            0                       # Number of times TLB was flushed by MVA & ASID
system.cpu.itb.stage2_mmu.stage2_tlb.hits            0                       # DTB hits
system.cpu.itb.stage2_mmu.stage2_tlb.inst_accesses            0                       # ITB inst accesses
system.cpu.itb.stage2_mmu.stage2_tlb.inst_hits            0                       # ITB inst hits
system.cpu.itb.stage2_mmu.stage2_tlb.inst_misses            0                       # ITB inst misses
system.cpu.itb.stage2_mmu.stage2_tlb.misses            0                       # DTB misses
system.cpu.itb.stage2_mmu.stage2_tlb.perms_faults            0                       # Number of TLB faults due to permissions restrictions
system.cpu.itb.stage2_mmu.stage2_tlb.prefetch_faults            0                       # Number of TLB faults due to prefetch
system.cpu.itb.stage2_mmu.stage2_tlb.read_accesses            0                       # DTB read accesses
system.cpu.itb.stage2_mmu.stage2_tlb.read_hits            0                       # DTB read hits
system.cpu.itb.stage2_mmu.stage2_tlb.read_misses            0                       # DTB read misses
system.cpu.itb.stage2_mmu.stage2_tlb.walker.walkRequestOrigin_Requested::Data            0                       # Table walker requests started/completed, data/inst
system.cpu.itb.stage2_mmu.stage2_tlb.walker.walkRequestOrigin_Requested::Inst            0                       # Table walker requests started/completed, data/inst
system.cpu.itb.stage2_mmu.stage2_tlb.walker.walkRequestOrigin_Requested::total            0                       # Table walker requests started/completed, data/inst
system.cpu.itb.stage2_mmu.stage2_tlb.walker.walkRequestOrigin_Completed::Data            0                       # Table walker requests started/completed, data/inst
system.cpu.itb.stage2_mmu.stage2_tlb.walker.walkRequestOrigin_Completed::Inst            0                       # Table walker requests started/completed, data/inst
system.cpu.itb.stage2_mmu.stage2_tlb.walker.walkRequestOrigin_Completed::total            0                       # Table walker requests started/completed, data/inst
system.cpu.itb.stage2_mmu.stage2_tlb.walker.walkRequestOrigin::total            0                       # Table walker requests started/completed, data/inst
system.cpu.itb.stage2_mmu.stage2_tlb.walker.walks            0                       # Table walker walks requested
system.cpu.itb.stage2_mmu.stage2_tlb.write_accesses            0                       # DTB write accesses
system.cpu.itb.stage2_mmu.stage2_tlb.write_hits            0                       # DTB write hits
system.cpu.itb.stage2_mmu.stage2_tlb.write_misses            0                       # DTB write misses
system.cpu.itb.walker.walkRequestOrigin_Requested::Data            0                       # Table walker requests started/completed, data/inst
system.cpu.itb.walker.walkRequestOrigin_Requested::Inst            0                       # Table walker requests started/completed, data/inst
system.cpu.itb.walker.walkRequestOrigin_Requested::total            0                       # Table walker requests started/completed, data/inst
system.cpu.itb.walker.walkRequestOrigin_Completed::Data            0                       # Table walker requests started/completed, data/inst
system.cpu.itb.walker.walkRequestOrigin_Completed::Inst            0                       # Table walker requests started/completed, data/inst
system.cpu.itb.walker.walkRequestOrigin_Completed::total            0                       # Table walker requests started/completed, data/inst
system.cpu.itb.walker.walkRequestOrigin::total            0                       # Table walker requests started/completed, data/inst
system.cpu.itb.walker.walks                         0                       # Table walker walks requested
system.cpu.itb.write_accesses                       0                       # DTB write accesses
system.cpu.itb.write_hits                           0                       # DTB write hits
system.cpu.itb.write_misses                         0                       # DTB write misses
system.cpu.numCycles                        174163230                       # number of cpu cycles simulated
system.cpu.numFetchSuspends                         0                       # Number of times Execute suspended instruction fetching
system.cpu.numWorkItemsCompleted                    0                       # number of work items this cpu completed
system.cpu.numWorkItemsStarted                      0                       # number of work items this cpu started
system.cpu.op_class_0::No_OpClass                   0      0.00%      0.00% # Class of committed instruction
system.cpu.op_class_0::IntAlu                46531400     46.44%     46.44% # Class of committed instruction
system.cpu.op_class_0::IntMult                  20720      0.02%     46.46% # Class of committed instruction
system.cpu.op_class_0::IntDiv                       0      0.00%     46.46% # Class of committed instruction
system.cpu.op_class_0::FloatAdd                     0      0.00%     46.46% # Class of committed instruction
system.cpu.op_class_0::FloatCmp                     0      0.00%     46.46% # Class of committed instruction
system.cpu.op_class_0::FloatCvt                     0      0.00%     46.46% # Class of committed instruction
system.cpu.op_class_0::FloatMult                    0      0.00%     46.46% # Class of committed instruction
system.cpu.op_class_0::FloatMultAcc                 0      0.00%     46.46% # Class of committed instruction
system.cpu.op_class_0::FloatDiv                     0      0.00%     46.46% # Class of committed instruction
system.cpu.op_class_0::FloatMisc                    0      0.00%     46.46% # Class of committed instruction
system.cpu.op_class_0::FloatSqrt                    0      0.00%     46.46% # Class of committed instruction
system.cpu.op_class_0::SimdAdd                      0      0.00%     46.46% # Class of committed instruction
system.cpu.op_class_0::SimdAddAcc                   0      0.00%     46.46% # Class of committed instruction
system.cpu.op_class_0::SimdAlu                      0      0.00%     46.46% # Class of committed instruction
system.cpu.op_class_0::SimdCmp                      0      0.00%     46.46% # Class of committed instruction
system.cpu.op_class_0::SimdCvt                      0      0.00%     46.46% # Class of committed instruction
system.cpu.op_class_0::SimdMisc                     0      0.00%     46.46% # Class of committed instruction
system.cpu.op_class_0::SimdMult                     0      0.00%     46.46% # Class of committed instruction
system.cpu.op_class_0::SimdMultAcc                  0      0.00%     46.46% # Class of committed instruction
system.cpu.op_class_0::SimdShift                    0      0.00%     46.46% # Class of committed instruction
system.cpu.op_class_0::SimdShiftAcc                 0      0.00%     46.46% # Class of committed instruction
system.cpu.op_class_0::SimdDiv                      0      0.00%     46.46% # Class of committed instruction
system.cpu.op_class_0::SimdSqrt                     0      0.00%     46.46% # Class of committed instruction
system.cpu.op_class_0::SimdFloatAdd                 0      0.00%     46.46% # Class of committed instruction
system.cpu.op_class_0::SimdFloatAlu                 0      0.00%     46.46% # Class of committed instruction
system.cpu.op_class_0::SimdFloatCmp                 0      0.00%     46.46% # Class of committed instruction
system.cpu.op_class_0::SimdFloatCvt                 0      0.00%     46.46% # Class of committed instruction
system.cpu.op_class_0::SimdFloatDiv                 0      0.00%     46.46% # Class of committed instruction
system.cpu.op_class_0::SimdFloatMisc               18      0.00%     46.46% # Class of committed instruction
system.cpu.op_class_0::SimdFloatMult                0      0.00%     46.46% # Class of committed instruction
system.cpu.op_class_0::SimdFloatMultAcc             0      0.00%     46.46% # Class of committed instruction
system.cpu.op_class_0::SimdFloatSqrt                0      0.00%     46.46% # Class of committed instruction
system.cpu.op_class_0::SimdReduceAdd                0      0.00%     46.46% # Class of committed instruction
system.cpu.op_class_0::SimdReduceAlu                0      0.00%     46.46% # Class of committed instruction
system.cpu.op_class_0::SimdReduceCmp                0      0.00%     46.46% # Class of committed instruction
system.cpu.op_class_0::SimdFloatReduceAdd            0      0.00%     46.46% # Class of committed instruction
system.cpu.op_class_0::SimdFloatReduceCmp            0      0.00%     46.46% # Class of committed instruction
system.cpu.op_class_0::SimdAes                      0      0.00%     46.46% # Class of committed instruction
system.cpu.op_class_0::SimdAesMix                   0      0.00%     46.46% # Class of committed instruction
system.cpu.op_class_0::SimdSha1Hash                 0      0.00%     46.46% # Class of committed instruction
system.cpu.op_class_0::SimdSha1Hash2                0      0.00%     46.46% # Class of committed instruction
system.cpu.op_class_0::SimdSha256Hash               0      0.00%     46.46% # Class of committed instruction
system.cpu.op_class_0::SimdSha256Hash2              0      0.00%     46.46% # Class of committed instruction
system.cpu.op_class_0::SimdShaSigma2                0      0.00%     46.46% # Class of committed instruction
system.cpu.op_class_0::SimdShaSigma3                0      0.00%     46.46% # Class of committed instruction
system.cpu.op_class_0::SimdPredAlu                  0      0.00%     46.46% # Class of committed instruction
system.cpu.op_class_0::MemRead               42693601     42.61%     89.07% # Class of committed instruction
system.cpu.op_class_0::MemWrite              10950624     10.93%    100.00% # Class of committed instruction
system.cpu.op_class_0::FloatMemRead                 0      0.00%    100.00% # Class of committed instruction
system.cpu.op_class_0::FloatMemWrite                0      0.00%    100.00% # Class of committed instruction
system.cpu.op_class_0::IprAccess                    0      0.00%    100.00% # Class of committed instruction
system.cpu.op_class_0::InstPrefetch                 0      0.00%    100.00% # Class of committed instruction
system.cpu.op_class_0::total                100196363                       # Class of committed instruction
system.cpu.tickCycles                       132782619                       # Number of cycles that the object actually ticked
system.cpu.workload.numSyscalls                    84                       # Number of system calls
system.membus.snoop_filter.hit_multi_requests            0                       # Number of requests hitting in the snoop filter with multiple (>1) holders of the requested data.
system.membus.snoop_filter.hit_multi_snoops            0                       # Number of snoops hitting in the snoop filter with multiple (>1) holders of the requested data.
system.membus.snoop_filter.hit_single_requests       167884                       # Number of requests hitting in the snoop filter with a single holder of the requested data.
system.membus.snoop_filter.hit_single_snoops            0                       # Number of snoops hitting in the snoop filter with a single holder of the requested data.
system.membus.snoop_filter.tot_requests        368869                       # Total number of requests made to the snoop filter.
system.membus.snoop_filter.tot_snoops               0                       # Total number of snoops made to the snoop filter.
system.tol2bus.snoop_filter.hit_multi_requests          120                       # Number of requests hitting in the snoop filter with multiple (>1) holders of the requested data.
system.tol2bus.snoop_filter.hit_multi_snoops            0                       # Number of snoops hitting in the snoop filter with multiple (>1) holders of the requested data.
system.tol2bus.snoop_filter.hit_single_requests       710863                       # Number of requests hitting in the snoop filter with a single holder of the requested data.
system.tol2bus.snoop_filter.hit_single_snoops          471                       # Number of snoops hitting in the snoop filter with a single holder of the requested data.
system.tol2bus.snoop_filter.tot_requests      1423192                       # Total number of requests made to the snoop filter.
system.tol2bus.snoop_filter.tot_snoops            471                       # Total number of snoops made to the snoop filter.
system.membus.pwrStateResidencyTicks::UNDEFINED  57996355590                       # Cumulative time (in ticks) in various power states
system.membus.trans_dist::ReadResp              64875                       # Transaction distribution
system.membus.trans_dist::WritebackDirty       111090                       # Transaction distribution
system.membus.trans_dist::CleanEvict            56787                       # Transaction distribution
system.membus.trans_dist::ReadExReq            136117                       # Transaction distribution
system.membus.trans_dist::ReadExResp           136116                       # Transaction distribution
system.membus.trans_dist::ReadSharedReq         64875                       # Transaction distribution
system.membus.pkt_count_system.l2.mem_side::system.mem_ctrls.port       569860                       # Packet count per connected master and slave (bytes)
system.membus.pkt_count::total                 569860                       # Packet count per connected master and slave (bytes)
system.membus.pkt_size_system.l2.mem_side::system.mem_ctrls.port     19973184                       # Cumulative packet size per connected master and slave (bytes)
system.membus.pkt_size::total                19973184                       # Cumulative packet size per connected master and slave (bytes)
system.membus.snoops                                0                       # Total snoops (count)
system.membus.snoopTraffic                          0                       # Total snoop traffic (bytes)
system.membus.snoop_fanout::samples            200992                       # Request fanout histogram
system.membus.snoop_fanout::mean                    0                       # Request fanout histogram
system.membus.snoop_fanout::stdev                   0                       # Request fanout histogram
system.membus.snoop_fanout::underflows              0      0.00%      0.00% # Request fanout histogram
system.membus.snoop_fanout::0                  200992    100.00%    100.00% # Request fanout histogram
system.membus.snoop_fanout::1                       0      0.00%    100.00% # Request fanout histogram
system.membus.snoop_fanout::overflows               0      0.00%    100.00% # Request fanout histogram
system.membus.snoop_fanout::min_value               0                       # Request fanout histogram
system.membus.snoop_fanout::max_value               0                       # Request fanout histogram
system.membus.snoop_fanout::total              200992                       # Request fanout histogram
system.membus.respLayer1.occupancy         1062959968                       # Layer occupancy (ticks)
system.membus.respLayer1.utilization              1.8                       # Layer utilization (%)
system.membus.reqLayer0.occupancy           921711981                       # Layer occupancy (ticks)
system.membus.reqLayer0.utilization               1.6                       # Layer utilization (%)
system.tol2bus.pwrStateResidencyTicks::UNDEFINED  57996355590                       # Cumulative time (in ticks) in various power states
system.tol2bus.trans_dist::ReadResp            425995                       # Transaction distribution
system.tol2bus.trans_dist::WritebackDirty       746634                       # Transaction distribution
system.tol2bus.trans_dist::WritebackClean          302                       # Transaction distribution
system.tol2bus.trans_dist::CleanEvict          132273                       # Transaction distribution
system.tol2bus.trans_dist::ReadExReq           286336                       # Transaction distribution
system.tol2bus.trans_dist::ReadExResp          286335                       # Transaction distribution
system.tol2bus.trans_dist::ReadCleanReq           747                       # Transaction distribution
system.tol2bus.trans_dist::ReadSharedReq       425248                       # Transaction distribution
system.tol2bus.pkt_count_system.cpu.icache.mem_side::system.l2.cpu_side         1796                       # Packet count per connected master and slave (bytes)
system.tol2bus.pkt_count_system.cpu.dcache.mem_side::system.l2.cpu_side      2133726                       # Packet count per connected master and slave (bytes)
system.tol2bus.pkt_count::total               2135522                       # Packet count per connected master and slave (bytes)
system.tol2bus.pkt_size_system.cpu.icache.mem_side::system.l2.cpu_side        67136                       # Cumulative packet size per connected master and slave (bytes)
system.tol2bus.pkt_size_system.cpu.dcache.mem_side::system.l2.cpu_side     86216128                       # Cumulative packet size per connected master and slave (bytes)
system.tol2bus.pkt_size::total               86283264                       # Cumulative packet size per connected master and slave (bytes)
system.tol2bus.snoops                          168348                       # Total snoops (count)
system.tol2bus.snoopTraffic                   7109760                       # Total snoop traffic (bytes)
system.tol2bus.snoop_fanout::samples           880679                       # Request fanout histogram
system.tol2bus.snoop_fanout::mean            0.000673                       # Request fanout histogram
system.tol2bus.snoop_fanout::stdev           0.025940                       # Request fanout histogram
system.tol2bus.snoop_fanout::underflows             0      0.00%      0.00% # Request fanout histogram
system.tol2bus.snoop_fanout::0                 880086     99.93%     99.93% # Request fanout histogram
system.tol2bus.snoop_fanout::1                    593      0.07%    100.00% # Request fanout histogram
system.tol2bus.snoop_fanout::2                      0      0.00%    100.00% # Request fanout histogram
system.tol2bus.snoop_fanout::overflows              0      0.00%    100.00% # Request fanout histogram
system.tol2bus.snoop_fanout::min_value              0                       # Request fanout histogram
system.tol2bus.snoop_fanout::max_value              1                       # Request fanout histogram
system.tol2bus.snoop_fanout::total             880679                       # Request fanout histogram
system.tol2bus.reqLayer0.occupancy          897396372                       # Layer occupancy (ticks)
system.tol2bus.reqLayer0.utilization              1.5                       # Layer utilization (%)
system.tol2bus.respLayer1.occupancy         710872745                       # Layer occupancy (ticks)
system.tol2bus.respLayer1.utilization             1.2                       # Layer utilization (%)
system.tol2bus.respLayer0.occupancy            746253                       # Layer occupancy (ticks)
system.tol2bus.respLayer0.utilization             0.0                       # Layer utilization (%)
system.voltage_domain.voltage                       1                       # Voltage in Volts
system.clk_domain.clock                          1000                       # Clock period in ticks
system.l2.pwrStateResidencyTicks::UNDEFINED  57996355590                       # Cumulative time (in ticks) in various power states
system.l2.demand_hits::.cpu.inst                   79                       # number of demand (read+write) hits
system.l2.demand_hits::.cpu.data               511256                       # number of demand (read+write) hits
system.l2.demand_hits::total                   511335                       # number of demand (read+write) hits
system.l2.overall_hits::.cpu.inst                  79                       # number of overall hits
system.l2.overall_hits::.cpu.data              511256                       # number of overall hits
system.l2.overall_hits::total                  511335                       # number of overall hits
system.l2.demand_misses::.cpu.inst                668                       # number of demand (read+write) misses
system.l2.demand_misses::.cpu.data             200328                       # number of demand (read+write) misses
system.l2.demand_misses::total                 200996                       # number of demand (read+write) misses
system.l2.overall_misses::.cpu.inst               668                       # number of overall misses
system.l2.overall_misses::.cpu.data            200328                       # number of overall misses
system.l2.overall_misses::total                200996                       # number of overall misses
system.l2.demand_miss_latency::.cpu.inst     46894392                       # number of demand (read+write) miss cycles
system.l2.demand_miss_latency::.cpu.data  15024677616                       # number of demand (read+write) miss cycles
system.l2.demand_miss_latency::total      15071572008                       # number of demand (read+write) miss cycles
system.l2.overall_miss_latency::.cpu.inst     46894392                       # number of overall miss cycles
system.l2.overall_miss_latency::.cpu.data  15024677616                       # number of overall miss cycles
system.l2.overall_miss_latency::total     15071572008                       # number of overall miss cycles
system.l2.demand_accesses::.cpu.inst              747                       # number of demand (read+write) accesses
system.l2.demand_accesses::.cpu.data           711584                       # number of demand (read+write) accesses
system.l2.demand_accesses::total               712331                       # number of demand (read+write) accesses
system.l2.overall_accesses::.cpu.inst             747                       # number of overall (read+write) accesses
system.l2.overall_accesses::.cpu.data          711584                       # number of overall (read+write) accesses
system.l2.overall_accesses::total              712331                       # number of overall (read+write) accesses
system.l2.demand_miss_rate::.cpu.inst        0.894244                       # miss rate for demand accesses
system.l2.demand_miss_rate::.cpu.data        0.281524                       # miss rate for demand accesses
system.l2.demand_miss_rate::total            0.282167                       # miss rate for demand accesses
system.l2.overall_miss_rate::.cpu.inst       0.894244                       # miss rate for overall accesses
system.l2.overall_miss_rate::.cpu.data       0.281524                       # miss rate for overall accesses
system.l2.overall_miss_rate::total           0.282167                       # miss rate for overall accesses
system.l2.demand_avg_miss_latency::.cpu.inst 70201.185629                       # average overall miss latency
system.l2.demand_avg_miss_latency::.cpu.data 75000.387445                       # average overall miss latency
system.l2.demand_avg_miss_latency::total 74984.437541                       # average overall miss latency
system.l2.overall_avg_miss_latency::.cpu.inst 70201.185629                       # average overall miss latency
system.l2.overall_avg_miss_latency::.cpu.data 75000.387445                       # average overall miss latency
system.l2.overall_avg_miss_latency::total 74984.437541                       # average overall miss latency
system.l2.blocked_cycles::no_mshrs                  0                       # number of cycles access was blocked
system.l2.blocked_cycles::no_targets                0                       # number of cycles access was blocked
system.l2.blocked::no_mshrs                         0                       # number of cycles access was blocked
system.l2.blocked::no_targets                       0                       # number of cycles access was blocked
system.l2.avg_blocked_cycles::no_mshrs            nan                       # average number of cycles each access was blocked
system.l2.avg_blocked_cycles::no_targets          nan                       # average number of cycles each access was blocked
system.l2.writebacks::.writebacks              111090                       # number of writebacks
system.l2.writebacks::total                    111090                       # number of writebacks
system.l2.demand_mshr_hits::.cpu.data               4                       # number of demand (read+write) MSHR hits
system.l2.demand_mshr_hits::total                   4                       # number of demand (read+write) MSHR hits
system.l2.overall_mshr_hits::.cpu.data              4                       # number of overall MSHR hits
system.l2.overall_mshr_hits::total                  4                       # number of overall MSHR hits
system.l2.demand_mshr_misses::.cpu.inst           668                       # number of demand (read+write) MSHR misses
system.l2.demand_mshr_misses::.cpu.data        200324                       # number of demand (read+write) MSHR misses
system.l2.demand_mshr_misses::total            200992                       # number of demand (read+write) MSHR misses
system.l2.overall_mshr_misses::.cpu.inst          668                       # number of overall MSHR misses
system.l2.overall_mshr_misses::.cpu.data       200324                       # number of overall MSHR misses
system.l2.overall_mshr_misses::total           200992                       # number of overall MSHR misses
system.l2.demand_mshr_miss_latency::.cpu.inst     42334103                       # number of demand (read+write) MSHR miss cycles
system.l2.demand_mshr_miss_latency::.cpu.data  13656723163                       # number of demand (read+write) MSHR miss cycles
system.l2.demand_mshr_miss_latency::total  13699057266                       # number of demand (read+write) MSHR miss cycles
system.l2.overall_mshr_miss_latency::.cpu.inst     42334103                       # number of overall MSHR miss cycles
system.l2.overall_mshr_miss_latency::.cpu.data  13656723163                       # number of overall MSHR miss cycles
system.l2.overall_mshr_miss_latency::total  13699057266                       # number of overall MSHR miss cycles
system.l2.demand_mshr_miss_rate::.cpu.inst     0.894244                       # mshr miss rate for demand accesses
system.l2.demand_mshr_miss_rate::.cpu.data     0.281518                       # mshr miss rate for demand accesses
system.l2.demand_mshr_miss_rate::total       0.282161                       # mshr miss rate for demand accesses
system.l2.overall_mshr_miss_rate::.cpu.inst     0.894244                       # mshr miss rate for overall accesses
system.l2.overall_mshr_miss_rate::.cpu.data     0.281518                       # mshr miss rate for overall accesses
system.l2.overall_mshr_miss_rate::total      0.282161                       # mshr miss rate for overall accesses
system.l2.demand_avg_mshr_miss_latency::.cpu.inst 63374.405689                       # average overall mshr miss latency
system.l2.demand_avg_mshr_miss_latency::.cpu.data 68173.175271                       # average overall mshr miss latency
system.l2.demand_avg_mshr_miss_latency::total 68157.226487                       # average overall mshr miss latency
system.l2.overall_avg_mshr_miss_latency::.cpu.inst 63374.405689                       # average overall mshr miss latency
system.l2.overall_avg_mshr_miss_latency::.cpu.data 68173.175271                       # average overall mshr miss latency
system.l2.overall_avg_mshr_miss_latency::total 68157.226487                       # average overall mshr miss latency
system.l2.replacements                         168348                       # number of replacements
system.l2.WritebackDirty_hits::.writebacks       635544                       # number of WritebackDirty hits
system.l2.WritebackDirty_hits::total           635544                       # number of WritebackDirty hits
system.l2.WritebackDirty_accesses::.writebacks       635544                       # number of WritebackDirty accesses(hits+misses)
system.l2.WritebackDirty_accesses::total       635544                       # number of WritebackDirty accesses(hits+misses)
system.l2.WritebackClean_hits::.writebacks          293                       # number of WritebackClean hits
system.l2.WritebackClean_hits::total              293                       # number of WritebackClean hits
system.l2.WritebackClean_accesses::.writebacks          293                       # number of WritebackClean accesses(hits+misses)
system.l2.WritebackClean_accesses::total          293                       # number of WritebackClean accesses(hits+misses)
system.l2.ReadExReq_hits::.cpu.data            150219                       # number of ReadExReq hits
system.l2.ReadExReq_hits::total                150219                       # number of ReadExReq hits
system.l2.ReadExReq_misses::.cpu.data          136117                       # number of ReadExReq misses
system.l2.ReadExReq_misses::total              136117                       # number of ReadExReq misses
system.l2.ReadExReq_miss_latency::.cpu.data  10501883937                       # number of ReadExReq miss cycles
system.l2.ReadExReq_miss_latency::total   10501883937                       # number of ReadExReq miss cycles
system.l2.ReadExReq_accesses::.cpu.data        286336                       # number of ReadExReq accesses(hits+misses)
system.l2.ReadExReq_accesses::total            286336                       # number of ReadExReq accesses(hits+misses)
system.l2.ReadExReq_miss_rate::.cpu.data     0.475375                       # miss rate for ReadExReq accesses
system.l2.ReadExReq_miss_rate::total         0.475375                       # miss rate for ReadExReq accesses
system.l2.ReadExReq_avg_miss_latency::.cpu.data 77153.360249                       # average ReadExReq miss latency
system.l2.ReadExReq_avg_miss_latency::total 77153.360249                       # average ReadExReq miss latency
system.l2.ReadExReq_mshr_misses::.cpu.data       136117                       # number of ReadExReq MSHR misses
system.l2.ReadExReq_mshr_misses::total         136117                       # number of ReadExReq MSHR misses
system.l2.ReadExReq_mshr_miss_latency::.cpu.data   9572719132                       # number of ReadExReq MSHR miss cycles
system.l2.ReadExReq_mshr_miss_latency::total   9572719132                       # number of ReadExReq MSHR miss cycles
system.l2.ReadExReq_mshr_miss_rate::.cpu.data     0.475375                       # mshr miss rate for ReadExReq accesses
system.l2.ReadExReq_mshr_miss_rate::total     0.475375                       # mshr miss rate for ReadExReq accesses
system.l2.ReadExReq_avg_mshr_miss_latency::.cpu.data 70327.138653                       # average ReadExReq mshr miss latency
system.l2.ReadExReq_avg_mshr_miss_latency::total 70327.138653                       # average ReadExReq mshr miss latency
system.l2.ReadCleanReq_hits::.cpu.inst             79                       # number of ReadCleanReq hits
system.l2.ReadCleanReq_hits::total                 79                       # number of ReadCleanReq hits
system.l2.ReadCleanReq_misses::.cpu.inst          668                       # number of ReadCleanReq misses
system.l2.ReadCleanReq_misses::total              668                       # number of ReadCleanReq misses
system.l2.ReadCleanReq_miss_latency::.cpu.inst     46894392                       # number of ReadCleanReq miss cycles
system.l2.ReadCleanReq_miss_latency::total     46894392                       # number of ReadCleanReq miss cycles
system.l2.ReadCleanReq_accesses::.cpu.inst          747                       # number of ReadCleanReq accesses(hits+misses)
system.l2.ReadCleanReq_accesses::total            747                       # number of ReadCleanReq accesses(hits+misses)
system.l2.ReadCleanReq_miss_rate::.cpu.inst     0.894244                       # miss rate for ReadCleanReq accesses
system.l2.ReadCleanReq_miss_rate::total      0.894244                       # miss rate for ReadCleanReq accesses
system.l2.ReadCleanReq_avg_miss_latency::.cpu.inst 70201.185629                       # average ReadCleanReq miss latency
system.l2.ReadCleanReq_avg_miss_latency::total 70201.185629                       # average ReadCleanReq miss latency
system.l2.ReadCleanReq_mshr_misses::.cpu.inst          668                       # number of ReadCleanReq MSHR misses
system.l2.ReadCleanReq_mshr_misses::total          668                       # number of ReadCleanReq MSHR misses
system.l2.ReadCleanReq_mshr_miss_latency::.cpu.inst     42334103                       # number of ReadCleanReq MSHR miss cycles
system.l2.ReadCleanReq_mshr_miss_latency::total     42334103                       # number of ReadCleanReq MSHR miss cycles
system.l2.ReadCleanReq_mshr_miss_rate::.cpu.inst     0.894244                       # mshr miss rate for ReadCleanReq accesses
system.l2.ReadCleanReq_mshr_miss_rate::total     0.894244                       # mshr miss rate for ReadCleanReq accesses
system.l2.ReadCleanReq_avg_mshr_miss_latency::.cpu.inst 63374.405689                       # average ReadCleanReq mshr miss latency
system.l2.ReadCleanReq_avg_mshr_miss_latency::total 63374.405689                       # average ReadCleanReq mshr miss latency
system.l2.ReadSharedReq_hits::.cpu.data        361037                       # number of ReadSharedReq hits
system.l2.ReadSharedReq_hits::total            361037                       # number of ReadSharedReq hits
system.l2.ReadSharedReq_misses::.cpu.data        64211                       # number of ReadSharedReq misses
system.l2.ReadSharedReq_misses::total           64211                       # number of ReadSharedReq misses
system.l2.ReadSharedReq_miss_latency::.cpu.data   4522793679                       # number of ReadSharedReq miss cycles
system.l2.ReadSharedReq_miss_latency::total   4522793679                       # number of ReadSharedReq miss cycles
system.l2.ReadSharedReq_accesses::.cpu.data       425248                       # number of ReadSharedReq accesses(hits+misses)
system.l2.ReadSharedReq_accesses::total        425248                       # number of ReadSharedReq accesses(hits+misses)
system.l2.ReadSharedReq_miss_rate::.cpu.data     0.150997                       # miss rate for ReadSharedReq accesses
system.l2.ReadSharedReq_miss_rate::total     0.150997                       # miss rate for ReadSharedReq accesses
system.l2.ReadSharedReq_avg_miss_latency::.cpu.data 70436.431126                       # average ReadSharedReq miss latency
system.l2.ReadSharedReq_avg_miss_latency::total 70436.431126                       # average ReadSharedReq miss latency
system.l2.ReadSharedReq_mshr_hits::.cpu.data            4                       # number of ReadSharedReq MSHR hits
system.l2.ReadSharedReq_mshr_hits::total            4                       # number of ReadSharedReq MSHR hits
system.l2.ReadSharedReq_mshr_misses::.cpu.data        64207                       # number of ReadSharedReq MSHR misses
system.l2.ReadSharedReq_mshr_misses::total        64207                       # number of ReadSharedReq MSHR misses
system.l2.ReadSharedReq_mshr_miss_latency::.cpu.data   4084004031                       # number of ReadSharedReq MSHR miss cycles
system.l2.ReadSharedReq_mshr_miss_latency::total   4084004031                       # number of ReadSharedReq MSHR miss cycles
system.l2.ReadSharedReq_mshr_miss_rate::.cpu.data     0.150987                       # mshr miss rate for ReadSharedReq accesses
system.l2.ReadSharedReq_mshr_miss_rate::total     0.150987                       # mshr miss rate for ReadSharedReq accesses
system.l2.ReadSharedReq_avg_mshr_miss_latency::.cpu.data 63606.834629                       # average ReadSharedReq mshr miss latency
system.l2.ReadSharedReq_avg_mshr_miss_latency::total 63606.834629                       # average ReadSharedReq mshr miss latency
system.l2.tags.pwrStateResidencyTicks::UNDEFINED  57996355590                       # Cumulative time (in ticks) in various power states
system.l2.tags.tagsinuse                 31705.239030                       # Cycle average of tags in use
system.l2.tags.total_refs                     1423067                       # Total number of references to valid blocks.
system.l2.tags.sampled_refs                    201116                       # Sample count of references to valid blocks.
system.l2.tags.avg_refs                      7.075852                       # Average number of references to valid blocks.
system.l2.tags.warmup_cycle                     74000                       # Cycle when the warmup percentage was hit.
system.l2.tags.occ_blocks::.writebacks      40.473905                       # Average occupied blocks per requestor
system.l2.tags.occ_blocks::.cpu.inst        84.915207                       # Average occupied blocks per requestor
system.l2.tags.occ_blocks::.cpu.data     31579.849918                       # Average occupied blocks per requestor
system.l2.tags.occ_percent::.writebacks      0.001235                       # Average percentage of cache occupancy
system.l2.tags.occ_percent::.cpu.inst        0.002591                       # Average percentage of cache occupancy
system.l2.tags.occ_percent::.cpu.data        0.963741                       # Average percentage of cache occupancy
system.l2.tags.occ_percent::total            0.967567                       # Average percentage of cache occupancy
system.l2.tags.occ_task_id_blocks::1024         32768                       # Occupied blocks per task id
system.l2.tags.age_task_id_blocks_1024::0           87                       # Occupied blocks per task id
system.l2.tags.age_task_id_blocks_1024::1          149                       # Occupied blocks per task id
system.l2.tags.age_task_id_blocks_1024::2         1761                       # Occupied blocks per task id
system.l2.tags.age_task_id_blocks_1024::3        19805                       # Occupied blocks per task id
system.l2.tags.age_task_id_blocks_1024::4        10966                       # Occupied blocks per task id
system.l2.tags.occ_task_id_percent::1024            1                       # Percentage of cache occupancy per task id
system.l2.tags.tag_accesses                  11585692                       # Number of tag accesses
system.l2.tags.data_accesses                 11585692                       # Number of data accesses
system.cpu_voltage_domain.voltage                   1                       # Voltage in Volts
system.mem_ctrls.pwrStateResidencyTicks::UNDEFINED  57996355590                       # Cumulative time (in ticks) in various power states
system.mem_ctrls.bytes_read::.cpu.inst          42752                       # Number of bytes read from this memory
system.mem_ctrls.bytes_read::.cpu.data       12820736                       # Number of bytes read from this memory
system.mem_ctrls.bytes_read::total           12863488                       # Number of bytes read from this memory
system.mem_ctrls.bytes_inst_read::.cpu.inst        42752                       # Number of instructions bytes read from this memory
system.mem_ctrls.bytes_inst_read::total         42752                       # Number of instructions bytes read from this memory
system.mem_ctrls.bytes_written::.writebacks      7109760                       # Number of bytes written to this memory
system.mem_ctrls.bytes_written::total         7109760                       # Number of bytes written to this memory
system.mem_ctrls.num_reads::.cpu.inst             668                       # Number of read requests responded to by this memory
system.mem_ctrls.num_reads::.cpu.data          200324                       # Number of read requests responded to by this memory
system.mem_ctrls.num_reads::total              200992                       # Number of read requests responded to by this memory
system.mem_ctrls.num_writes::.writebacks       111090                       # Number of write requests responded to by this memory
system.mem_ctrls.num_writes::total             111090                       # Number of write requests responded to by this memory
system.mem_ctrls.bw_read::.cpu.inst            737150                       # Total read bandwidth from this memory (bytes/s)
system.mem_ctrls.bw_read::.cpu.data         221061063                       # Total read bandwidth from this memory (bytes/s)
system.mem_ctrls.bw_read::total             221798212                       # Total read bandwidth from this memory (bytes/s)
system.mem_ctrls.bw_inst_read::.cpu.inst       737150                       # Instruction read bandwidth from this memory (bytes/s)
system.mem_ctrls.bw_inst_read::total           737150                       # Instruction read bandwidth from this memory (bytes/s)
system.mem_ctrls.bw_write::.writebacks      122589772                       # Write bandwidth from this memory (bytes/s)
system.mem_ctrls.bw_write::total            122589772                       # Write bandwidth from this memory (bytes/s)
system.mem_ctrls.bw_total::.writebacks      122589772                       # Total bandwidth to/from this memory (bytes/s)
system.mem_ctrls.bw_total::.cpu.inst           737150                       # Total bandwidth to/from this memory (bytes/s)
system.mem_ctrls.bw_total::.cpu.data        221061063                       # Total bandwidth to/from this memory (bytes/s)
system.mem_ctrls.bw_total::total            344387984                       # Total bandwidth to/from this memory (bytes/s)
system.mem_ctrls.avgPriority_.writebacks::samples    111090.00                       # Average QoS priority value for accepted requests
system.mem_ctrls.avgPriority_.cpu.inst::samples       668.00                       # Average QoS priority value for accepted requests
system.mem_ctrls.avgPriority_.cpu.data::samples    200292.00                       # Average QoS priority value for accepted requests
system.mem_ctrls.priorityMinLatency      0.000000016842                       # per QoS priority minimum request to response latency (s)
system.mem_ctrls.priorityMaxLatency      0.002038747840                       # per QoS priority maximum request to response latency (s)
system.mem_ctrls.numReadWriteTurnArounds         6647                       # Number of turnarounds from READ to WRITE
system.mem_ctrls.numWriteReadTurnArounds         6647                       # Number of turnarounds from WRITE to READ
system.mem_ctrls.numStayReadState              517272                       # Number of times bus staying in READ state
system.mem_ctrls.numStayWriteState             104542                       # Number of times bus staying in WRITE state
system.mem_ctrls.readReqs                      200992                       # Number of read requests accepted
system.mem_ctrls.writeReqs                     111090                       # Number of write requests accepted
system.mem_ctrls.readBursts                    200992                       # Number of DRAM read bursts, including those serviced by the write queue
system.mem_ctrls.writeBursts                   111090                       # Number of DRAM write bursts, including those merged in the write queue
system.mem_ctrls.servicedByWrQ                     32                       # Number of DRAM read bursts serviced by the write queue
system.mem_ctrls.mergedWrBursts                     0                       # Number of DRAM write bursts merged with an existing one
system.mem_ctrls.neitherReadNorWriteReqs            0                       # Number of requests that are neither read nor write
system.mem_ctrls.perBankRdBursts::0             12843                       # Per bank write bursts
system.mem_ctrls.perBankRdBursts::1             12743                       # Per bank write bursts
system.mem_ctrls.perBankRdBursts::2             12822                       # Per bank write bursts
system.mem_ctrls.perBankRdBursts::3             12536                       # Per bank write bursts
system.mem_ctrls.perBankRdBursts::4             12513                       # Per bank write bursts
system.mem_ctrls.perBankRdBursts::5             12344                       # Per bank write bursts
system.mem_ctrls.perBankRdBursts::6             12295                       # Per bank write bursts
system.mem_ctrls.perBankRdBursts::7             12467                       # Per bank write bursts
system.mem_ctrls.perBankRdBursts::8             12452                       # Per bank write bursts
system.mem_ctrls.perBankRdBursts::9             12398                       # Per bank write bursts
system.mem_ctrls.perBankRdBursts::10            12451                       # Per bank write bursts
system.mem_ctrls.perBankRdBursts::11            12468                       # Per bank write bursts
system.mem_ctrls.perBankRdBursts::12            12637                       # Per bank write bursts
system.mem_ctrls.perBankRdBursts::13            12712                       # Per bank write bursts
system.mem_ctrls.perBankRdBursts::14            12665                       # Per bank write bursts
system.mem_ctrls.perBankRdBursts::15            12614                       # Per bank write bursts
system.mem_ctrls.perBankWrBursts::0              7136                       # Per bank write bursts
system.mem_ctrls.perBankWrBursts::1              7133                       # Per bank write bursts
system.mem_ctrls.perBankWrBursts::2              7162                       # Per bank write bursts
system.mem_ctrls.perBankWrBursts::3              6979                       # Per bank write bursts
system.mem_ctrls.perBankWrBursts::4              6978                       # Per bank write bursts
system.mem_ctrls.perBankWrBursts::5              6932                       # Per bank write bursts
system.mem_ctrls.perBankWrBursts::6              6824                       # Per bank write bursts
system.mem_ctrls.perBankWrBursts::7              6802                       # Per bank write bursts
system.mem_ctrls.perBankWrBursts::8              6794                       # Per bank write bursts
system.mem_ctrls.perBankWrBursts::9              6773                       # Per bank write bursts
system.mem_ctrls.perBankWrBursts::10             6863                       # Per bank write bursts
system.mem_ctrls.perBankWrBursts::11             6810                       # Per bank write bursts
system.mem_ctrls.perBankWrBursts::12             6901                       # Per bank write bursts
system.mem_ctrls.perBankWrBursts::13             6997                       # Per bank write bursts
system.mem_ctrls.perBankWrBursts::14             7010                       # Per bank write bursts
system.mem_ctrls.perBankWrBursts::15             6969                       # Per bank write bursts
system.mem_ctrls.avgRdQLen                       1.11                       # Average read queue length when enqueuing
system.mem_ctrls.avgWrQLen                      24.43                       # Average write queue length when enqueuing
system.mem_ctrls.totQLat                   2667746253                       # Total ticks spent queuing
system.mem_ctrls.totBusLat                  754001920                       # Total ticks spent in databus transfers
system.mem_ctrls.totMemAccLat              6052314573                       # Total ticks spent from burst creation until serviced by the DRAM
system.mem_ctrls.avgQLat                     13275.01                       # Average queueing delay per DRAM burst
system.mem_ctrls.avgBusLat                    3752.00                       # Average bus latency per DRAM burst
system.mem_ctrls.avgMemAccLat                30117.01                       # Average memory access latency per DRAM burst
system.mem_ctrls.numRdRetry                         0                       # Number of times read queue was full causing retry
system.mem_ctrls.numWrRetry                         0                       # Number of times write queue was full causing retry
system.mem_ctrls.readRowHits                   140867                       # Number of row buffer hits during reads
system.mem_ctrls.writeRowHits                   69780                       # Number of row buffer hits during writes
system.mem_ctrls.readRowHitRate                 70.10                       # Row buffer hit rate for reads
system.mem_ctrls.writeRowHitRate                62.81                       # Row buffer hit rate for writes
system.mem_ctrls.readPktSize::0                     0                       # Read request sizes (log2)
system.mem_ctrls.readPktSize::1                     0                       # Read request sizes (log2)
system.mem_ctrls.readPktSize::2                     0                       # Read request sizes (log2)
system.mem_ctrls.readPktSize::3                     0                       # Read request sizes (log2)
system.mem_ctrls.readPktSize::4                     0                       # Read request sizes (log2)
system.mem_ctrls.readPktSize::5                     0                       # Read request sizes (log2)
system.mem_ctrls.readPktSize::6                200992                       # Read request sizes (log2)
system.mem_ctrls.writePktSize::0                    0                       # Write request sizes (log2)
system.mem_ctrls.writePktSize::1                    0                       # Write request sizes (log2)
system.mem_ctrls.writePktSize::2                    0                       # Write request sizes (log2)
system.mem_ctrls.writePktSize::3                    0                       # Write request sizes (log2)
system.mem_ctrls.writePktSize::4                    0                       # Write request sizes (log2)
system.mem_ctrls.writePktSize::5                    0                       # Write request sizes (log2)
system.mem_ctrls.writePktSize::6               111090                       # Write request sizes (log2)
system.mem_ctrls.rdQLenPdf::0                  137459                       # What read queue length does an incoming req see
system.mem_ctrls.rdQLenPdf::1                   60685                       # What read queue length does an incoming req see
system.mem_ctrls.rdQLenPdf::2                    2229                       # What read queue length does an incoming req see
system.mem_ctrls.rdQLenPdf::3                     586                       # What read queue length does an incoming req see
system.mem_ctrls.rdQLenPdf::4                       1                       # What read queue length does an incoming req see
system.mem_ctrls.rdQLenPdf::5                       0                       # What read queue length does an incoming req see
system.mem_ctrls.rdQLenPdf::6                       0                       # What read queue length does an incoming req see
system.mem_ctrls.rdQLenPdf::7                       0                       # What read queue length does an incoming req see
system.mem_ctrls.rdQLenPdf::8                       0                       # What read queue length does an incoming req see
system.mem_ctrls.rdQLenPdf::9                       0                       # What read queue length does an incoming req see
system.mem_ctrls.rdQLenPdf::10                      0                       # What read queue length does an incoming req see
system.mem_ctrls.rdQLenPdf::11                      0                       # What read queue length does an incoming req see
system.mem_ctrls.rdQLenPdf::12                      0                       # What read queue length does an incoming req see
system.mem_ctrls.rdQLenPdf::13                      0                       # What read queue length does an incoming req see
system.mem_ctrls.rdQLenPdf::14                      0                       # What read queue length does an incoming req see
system.mem_ctrls.rdQLenPdf::15                      0                       # What read queue length does an incoming req see
system.mem_ctrls.rdQLenPdf::16                      0                       # What read queue length does an incoming req see
system.mem_ctrls.rdQLenPdf::17                      0                       # What read queue length does an incoming req see
system.mem_ctrls.rdQLenPdf::18                      0                       # What read queue length does an incoming req see
system.mem_ctrls.rdQLenPdf::19                      0                       # What read queue length does an incoming req see
system.mem_ctrls.rdQLenPdf::20                      0                       # What read queue length does an incoming req see
system.mem_ctrls.rdQLenPdf::21                      0                       # What read queue length does an incoming req see
system.mem_ctrls.rdQLenPdf::22                      0                       # What read queue length does an incoming req see
system.mem_ctrls.rdQLenPdf::23                      0                       # What read queue length does an incoming req see
system.mem_ctrls.rdQLenPdf::24                      0                       # What read queue length does an incoming req see
system.mem_ctrls.rdQLenPdf::25                      0                       # What read queue length does an incoming req see
system.mem_ctrls.rdQLenPdf::26                      0                       # What read queue length does an incoming req see
system.mem_ctrls.rdQLenPdf::27                      0                       # What read queue length does an incoming req see
system.mem_ctrls.rdQLenPdf::28                      0                       # What read queue length does an incoming req see
system.mem_ctrls.rdQLenPdf::29                      0                       # What read queue length does an incoming req see
system.mem_ctrls.rdQLenPdf::30                      0                       # What read queue length does an incoming req see
system.mem_ctrls.rdQLenPdf::31                      0                       # What read queue length does an incoming req see
system.mem_ctrls.wrQLenPdf::0                       1                       # What write queue length does an incoming req see
system.mem_ctrls.wrQLenPdf::1                       1                       # What write queue length does an incoming req see
system.mem_ctrls.wrQLenPdf::2                       1                       # What write queue length does an incoming req see
system.mem_ctrls.wrQLenPdf::3                       1                       # What write queue length does an incoming req see
system.mem_ctrls.wrQLenPdf::4                       1                       # What write queue length does an incoming req see
system.mem_ctrls.wrQLenPdf::5                       1                       # What write queue length does an incoming req see
system.mem_ctrls.wrQLenPdf::6                       1                       # What write queue length does an incoming req see
system.mem_ctrls.wrQLenPdf::7                       1                       # What write queue length does an incoming req see
system.mem_ctrls.wrQLenPdf::8                       1                       # What write queue length does an incoming req see
system.mem_ctrls.wrQLenPdf::9                       1                       # What write queue length does an incoming req see
system.mem_ctrls.wrQLenPdf::10                      1                       # What write queue length does an incoming req see
system.mem_ctrls.wrQLenPdf::11                      1                       # What write queue length does an incoming req see
system.mem_ctrls.wrQLenPdf::12                      1                       # What write queue length does an incoming req see
system.mem_ctrls.wrQLenPdf::13                      1                       # What write queue length does an incoming req see
system.mem_ctrls.wrQLenPdf::14                      1                       # What write queue length does an incoming req see
system.mem_ctrls.wrQLenPdf::15                   2207                       # What write queue length does an incoming req see
system.mem_ctrls.wrQLenPdf::16                   2269                       # What write queue length does an incoming req see
system.mem_ctrls.wrQLenPdf::17                   5540                       # What write queue length does an incoming req see
system.mem_ctrls.wrQLenPdf::18                   6650                       # What write queue length does an incoming req see
system.mem_ctrls.wrQLenPdf::19                   6715                       # What write queue length does an incoming req see
system.mem_ctrls.wrQLenPdf::20                   6731                       # What write queue length does an incoming req see
system.mem_ctrls.wrQLenPdf::21                   6699                       # What write queue length does an incoming req see
system.mem_ctrls.wrQLenPdf::22                   6719                       # What write queue length does an incoming req see
system.mem_ctrls.wrQLenPdf::23                   6705                       # What write queue length does an incoming req see
system.mem_ctrls.wrQLenPdf::24                   6730                       # What write queue length does an incoming req see
system.mem_ctrls.wrQLenPdf::25                   6829                       # What write queue length does an incoming req see
system.mem_ctrls.wrQLenPdf::26                   6770                       # What write queue length does an incoming req see
system.mem_ctrls.wrQLenPdf::27                   6740                       # What write queue length does an incoming req see
system.mem_ctrls.wrQLenPdf::28                   7086                       # What write queue length does an incoming req see
system.mem_ctrls.wrQLenPdf::29                   6683                       # What write queue length does an incoming req see
system.mem_ctrls.wrQLenPdf::30                   6658                       # What write queue length does an incoming req see
system.mem_ctrls.wrQLenPdf::31                   6693                       # What write queue length does an incoming req see
system.mem_ctrls.wrQLenPdf::32                   6647                       # What write queue length does an incoming req see
system.mem_ctrls.wrQLenPdf::33                      4                       # What write queue length does an incoming req see
system.mem_ctrls.wrQLenPdf::34                      0                       # What write queue length does an incoming req see
system.mem_ctrls.wrQLenPdf::35                      0                       # What write queue length does an incoming req see
system.mem_ctrls.wrQLenPdf::36                      0                       # What write queue length does an incoming req see
system.mem_ctrls.wrQLenPdf::37                      0                       # What write queue length does an incoming req see
system.mem_ctrls.wrQLenPdf::38                      0                       # What write queue length does an incoming req see
system.mem_ctrls.wrQLenPdf::39                      0                       # What write queue length does an incoming req see
system.mem_ctrls.wrQLenPdf::40                      0                       # What write queue length does an incoming req see
system.mem_ctrls.wrQLenPdf::41                      0                       # What write queue length does an incoming req see
system.mem_ctrls.wrQLenPdf::42                      0                       # What write queue length does an incoming req see
system.mem_ctrls.wrQLenPdf::43                      0                       # What write queue length does an incoming req see
system.mem_ctrls.wrQLenPdf::44                      0                       # What write queue length does an incoming req see
system.mem_ctrls.wrQLenPdf::45                      0                       # What write queue length does an incoming req see
system.mem_ctrls.wrQLenPdf::46                      0                       # What write queue length does an incoming req see
system.mem_ctrls.wrQLenPdf::47                      0                       # What write queue length does an incoming req see
system.mem_ctrls.wrQLenPdf::48                      0                       # What write queue length does an incoming req see
system.mem_ctrls.wrQLenPdf::49                      0                       # What write queue length does an incoming req see
system.mem_ctrls.wrQLenPdf::50                      0                       # What write queue length does an incoming req see
system.mem_ctrls.wrQLenPdf::51                      0                       # What write queue length does an incoming req see
system.mem_ctrls.wrQLenPdf::52                      0                       # What write queue length does an incoming req see
system.mem_ctrls.wrQLenPdf::53                      0                       # What write queue length does an incoming req see
system.mem_ctrls.wrQLenPdf::54                      0                       # What write queue length does an incoming req see
system.mem_ctrls.wrQLenPdf::55                      0                       # What write queue length does an incoming req see
system.mem_ctrls.wrQLenPdf::56                      0                       # What write queue length does an incoming req see
system.mem_ctrls.wrQLenPdf::57                      0                       # What write queue length does an incoming req see
system.mem_ctrls.wrQLenPdf::58                      0                       # What write queue length does an incoming req see
system.mem_ctrls.wrQLenPdf::59                      0                       # What write queue length does an incoming req see
system.mem_ctrls.wrQLenPdf::60                      0                       # What write queue length does an incoming req see
system.mem_ctrls.wrQLenPdf::61                      0                       # What write queue length does an incoming req see
system.mem_ctrls.wrQLenPdf::62                      0                       # What write queue length does an incoming req see
system.mem_ctrls.wrQLenPdf::63                      0                       # What write queue length does an incoming req see
system.mem_ctrls.bytesPerActivate::samples       101361                       # Bytes accessed per row activation
system.mem_ctrls.bytesPerActivate::mean    197.001371                       # Bytes accessed per row activation
system.mem_ctrls.bytesPerActivate::gmean   113.334326                       # Bytes accessed per row activation
system.mem_ctrls.bytesPerActivate::stdev   264.897930                       # Bytes accessed per row activation
system.mem_ctrls.bytesPerActivate::0-127        66592     65.70%     65.70% # Bytes accessed per row activation
system.mem_ctrls.bytesPerActivate::128-255        14044     13.86%     79.55% # Bytes accessed per row activation
system.mem_ctrls.bytesPerActivate::256-383         2424      2.39%     81.94% # Bytes accessed per row activation
system.mem_ctrls.bytesPerActivate::384-511         1363      1.34%     83.29% # Bytes accessed per row activation
system.mem_ctrls.bytesPerActivate::512-639         8795      8.68%     91.97% # Bytes accessed per row activation
system.mem_ctrls.bytesPerActivate::640-767          503      0.50%     92.46% # Bytes accessed per row activation
system.mem_ctrls.bytesPerActivate::768-895          879      0.87%     93.33% # Bytes accessed per row activation
system.mem_ctrls.bytesPerActivate::896-1023          915      0.90%     94.23% # Bytes accessed per row activation
system.mem_ctrls.bytesPerActivate::1024-1151         5846      5.77%    100.00% # Bytes accessed per row activation
system.mem_ctrls.bytesPerActivate::total       101361                       # Bytes accessed per row activation
system.mem_ctrls.rdPerTurnAround::samples         6647                       # Reads before turning the bus around for writes
system.mem_ctrls.rdPerTurnAround::mean      30.231383                       # Reads before turning the bus around for writes
system.mem_ctrls.rdPerTurnAround::gmean     23.756947                       # Reads before turning the bus around for writes
system.mem_ctrls.rdPerTurnAround::stdev     52.343541                       # Reads before turning the bus around for writes
system.mem_ctrls.rdPerTurnAround::0-127          6480     97.49%     97.49% # Reads before turning the bus around for writes
system.mem_ctrls.rdPerTurnAround::128-255           37      0.56%     98.04% # Reads before turning the bus around for writes
system.mem_ctrls.rdPerTurnAround::256-383          127      1.91%     99.95% # Reads before turning the bus around for writes
system.mem_ctrls.rdPerTurnAround::640-767            1      0.02%     99.97% # Reads before turning the bus around for writes
system.mem_ctrls.rdPerTurnAround::1664-1791            1      0.02%     99.98% # Reads before turning the bus around for writes
system.mem_ctrls.rdPerTurnAround::2432-2559            1      0.02%    100.00% # Reads before turning the bus around for writes
system.mem_ctrls.rdPerTurnAround::total          6647                       # Reads before turning the bus around for writes
system.mem_ctrls.wrPerTurnAround::samples         6647                       # Writes before turning the bus around for reads
system.mem_ctrls.wrPerTurnAround::mean      16.708741                       # Writes before turning the bus around for reads
[...]
system.cpu.icache.ReadReq_avg_miss_latency::total 65198.903614                       # average ReadReq miss latency
system.cpu.icache.ReadReq_mshr_misses::.cpu.inst          747                       # number of ReadReq MSHR misses
system.cpu.icache.ReadReq_mshr_misses::total          747                       # number of ReadReq MSHR misses
system.cpu.icache.ReadReq_mshr_miss_latency::.cpu.inst     48206079                       # number of ReadReq MSHR miss cycles
system.cpu.icache.ReadReq_mshr_miss_latency::total     48206079                       # number of ReadReq MSHR miss cycles
system.cpu.icache.ReadReq_mshr_miss_rate::.cpu.inst     0.000077                       # mshr miss rate for ReadReq accesses
system.cpu.icache.ReadReq_mshr_miss_rate::total     0.000077                       # mshr miss rate for ReadReq accesses
system.cpu.icache.ReadReq_avg_mshr_miss_latency::.cpu.inst 64532.903614                       # average ReadReq mshr miss latency
system.cpu.icache.ReadReq_avg_mshr_miss_latency::total 64532.903614                       # average ReadReq mshr miss latency
system.cpu.icache.tags.pwrStateResidencyTicks::UNDEFINED  57996355590                       # Cumulative time (in ticks) in various power states
system.cpu.icache.tags.tagsinuse           359.907564                       # Cycle average of tags in use
system.cpu.icache.tags.total_refs             9663513                       # Total number of references to valid blocks.
system.cpu.icache.tags.sampled_refs               747                       # Sample count of references to valid blocks.
system.cpu.icache.tags.avg_refs          12936.429719                       # Average number of references to valid blocks.
system.cpu.icache.tags.warmup_cycle             81252                       # Cycle when the warmup percentage was hit.
system.cpu.icache.tags.occ_blocks::.cpu.inst   359.907564                       # Average occupied blocks per requestor
system.cpu.icache.tags.occ_percent::.cpu.inst     0.702944                       # Average percentage of cache occupancy
system.cpu.icache.tags.occ_percent::total     0.702944                       # Average percentage of cache occupancy
system.cpu.icache.tags.occ_task_id_blocks::1024          445                       # Occupied blocks per task id
system.cpu.icache.tags.age_task_id_blocks_1024::3          106                       # Occupied blocks per task id
system.cpu.icache.tags.age_task_id_blocks_1024::4          339                       # Occupied blocks per task id
system.cpu.icache.tags.occ_task_id_percent::1024     0.869141                       # Percentage of cache occupancy per task id
system.cpu.icache.tags.tag_accesses          19327773                       # Number of tag accesses
system.cpu.icache.tags.data_accesses         19327773                       # Number of data accesses
system.cpu.dtb.walker.pwrStateResidencyTicks::UNDEFINED  57996355590                       # Cumulative time (in ticks) in various power states
system.cpu.dtb.stage2_mmu.stage2_tlb.walker.pwrStateResidencyTicks::UNDEFINED  57996355590                       # Cumulative time (in ticks) in various power states
system.cpu.dcache.pwrStateResidencyTicks::UNDEFINED  57996355590                       # Cumulative time (in ticks) in various power states
system.cpu.dcache.demand_hits::.cpu.data     51301844                       # number of demand (read+write) hits
system.cpu.dcache.demand_hits::total         51301844                       # number of demand (read+write) hits
system.cpu.dcache.overall_hits::.cpu.data     51302350                       # number of overall hits
system.cpu.dcache.overall_hits::total        51302350                       # number of overall hits
system.cpu.dcache.demand_misses::.cpu.data       769727                       # number of demand (read+write) misses
system.cpu.dcache.demand_misses::total         769727                       # number of demand (read+write) misses
system.cpu.dcache.overall_misses::.cpu.data       777638                       # number of overall misses
system.cpu.dcache.overall_misses::total        777638                       # number of overall misses
system.cpu.dcache.demand_miss_latency::.cpu.data  20754325233                       # number of demand (read+write) miss cycles
system.cpu.dcache.demand_miss_latency::total  20754325233                       # number of demand (read+write) miss cycles
system.cpu.dcache.overall_miss_latency::.cpu.data  20754325233                       # number of overall miss cycles
system.cpu.dcache.overall_miss_latency::total  20754325233                       # number of overall miss cycles
system.cpu.dcache.demand_accesses::.cpu.data     52071571                       # number of demand (read+write) accesses
system.cpu.dcache.demand_accesses::total     52071571                       # number of demand (read+write) accesses
system.cpu.dcache.overall_accesses::.cpu.data     52079988                       # number of overall (read+write) accesses
system.cpu.dcache.overall_accesses::total     52079988                       # number of overall (read+write) accesses
system.cpu.dcache.demand_miss_rate::.cpu.data     0.014782                       # miss rate for demand accesses
system.cpu.dcache.demand_miss_rate::total     0.014782                       # miss rate for demand accesses
system.cpu.dcache.overall_miss_rate::.cpu.data     0.014932                       # miss rate for overall accesses
system.cpu.dcache.overall_miss_rate::total     0.014932                       # miss rate for overall accesses
system.cpu.dcache.demand_avg_miss_latency::.cpu.data 26963.228824                       # average overall miss latency
system.cpu.dcache.demand_avg_miss_latency::total 26963.228824                       # average overall miss latency
system.cpu.dcache.overall_avg_miss_latency::.cpu.data 26688.928824                       # average overall miss latency
system.cpu.dcache.overall_avg_miss_latency::total 26688.928824                       # average overall miss latency
system.cpu.dcache.blocked_cycles::no_mshrs       291627                       # number of cycles access was blocked
system.cpu.dcache.blocked_cycles::no_targets            0                       # number of cycles access was blocked
system.cpu.dcache.blocked::no_mshrs              3279                       # number of cycles access was blocked
system.cpu.dcache.blocked::no_targets               0                       # number of cycles access was blocked
system.cpu.dcache.avg_blocked_cycles::no_mshrs    88.937786                       # average number of cycles each access was blocked
system.cpu.dcache.avg_blocked_cycles::no_targets          nan                       # average number of cycles each access was blocked
system.cpu.dcache.writebacks::.writebacks       635544                       # number of writebacks
system.cpu.dcache.writebacks::total            635544                       # number of writebacks
system.cpu.dcache.demand_mshr_hits::.cpu.data        66049                       # number of demand (read+write) MSHR hits
system.cpu.dcache.demand_mshr_hits::total        66049                       # number of demand (read+write) MSHR hits
system.cpu.dcache.overall_mshr_hits::.cpu.data        66049                       # number of overall MSHR hits
system.cpu.dcache.overall_mshr_hits::total        66049                       # number of overall MSHR hits
system.cpu.dcache.demand_mshr_misses::.cpu.data       703678                       # number of demand (read+write) MSHR misses
system.cpu.dcache.demand_mshr_misses::total       703678                       # number of demand (read+write) MSHR misses
system.cpu.dcache.overall_mshr_misses::.cpu.data       711584                       # number of overall MSHR misses
system.cpu.dcache.overall_mshr_misses::total       711584                       # number of overall MSHR misses
system.cpu.dcache.demand_mshr_miss_latency::.cpu.data  18719570691                       # number of demand (read+write) MSHR miss cycles
system.cpu.dcache.demand_mshr_miss_latency::total  18719570691                       # number of demand (read+write) MSHR miss cycles
system.cpu.dcache.overall_mshr_miss_latency::.cpu.data  19313624375                       # number of overall MSHR miss cycles
system.cpu.dcache.overall_mshr_miss_latency::total  19313624375                       # number of overall MSHR miss cycles
system.cpu.dcache.demand_mshr_miss_rate::.cpu.data     0.013514                       # mshr miss rate for demand accesses
system.cpu.dcache.demand_mshr_miss_rate::total     0.013514                       # mshr miss rate for demand accesses
system.cpu.dcache.overall_mshr_miss_rate::.cpu.data     0.013663                       # mshr miss rate for overall accesses
system.cpu.dcache.overall_mshr_miss_rate::total     0.013663                       # mshr miss rate for overall accesses
system.cpu.dcache.demand_avg_mshr_miss_latency::.cpu.data 26602.466883                       # average overall mshr miss latency
system.cpu.dcache.demand_avg_mshr_miss_latency::total 26602.466883                       # average overall mshr miss latency
system.cpu.dcache.overall_avg_mshr_miss_latency::.cpu.data 27141.735024                       # average overall mshr miss latency
system.cpu.dcache.overall_avg_mshr_miss_latency::total 27141.735024                       # average overall mshr miss latency
system.cpu.dcache.replacements                 710559                       # number of replacements
system.cpu.dcache.ReadReq_hits::.cpu.data     40703481                       # number of ReadReq hits
system.cpu.dcache.ReadReq_hits::total        40703481                       # number of ReadReq hits
system.cpu.dcache.ReadReq_misses::.cpu.data       417989                       # number of ReadReq misses
system.cpu.dcache.ReadReq_misses::total        417989                       # number of ReadReq misses
system.cpu.dcache.ReadReq_miss_latency::.cpu.data   7183755054                       # number of ReadReq miss cycles
system.cpu.dcache.ReadReq_miss_latency::total   7183755054                       # number of ReadReq miss cycles
system.cpu.dcache.ReadReq_accesses::.cpu.data     41121470                       # number of ReadReq accesses(hits+misses)
system.cpu.dcache.ReadReq_accesses::total     41121470                       # number of ReadReq accesses(hits+misses)
system.cpu.dcache.ReadReq_miss_rate::.cpu.data     0.010165                       # miss rate for ReadReq accesses
system.cpu.dcache.ReadReq_miss_rate::total     0.010165                       # miss rate for ReadReq accesses
system.cpu.dcache.ReadReq_avg_miss_latency::.cpu.data 17186.469151                       # average ReadReq miss latency
system.cpu.dcache.ReadReq_avg_miss_latency::total 17186.469151                       # average ReadReq miss latency
system.cpu.dcache.ReadReq_mshr_hits::.cpu.data          647                       # number of ReadReq MSHR hits
system.cpu.dcache.ReadReq_mshr_hits::total          647                       # number of ReadReq MSHR hits
system.cpu.dcache.ReadReq_mshr_misses::.cpu.data       417342                       # number of ReadReq MSHR misses
system.cpu.dcache.ReadReq_mshr_misses::total       417342                       # number of ReadReq MSHR misses
system.cpu.dcache.ReadReq_mshr_miss_latency::.cpu.data   6880363749                       # number of ReadReq MSHR miss cycles
system.cpu.dcache.ReadReq_mshr_miss_latency::total   6880363749                       # number of ReadReq MSHR miss cycles
system.cpu.dcache.ReadReq_mshr_miss_rate::.cpu.data     0.010149                       # mshr miss rate for ReadReq accesses
system.cpu.dcache.ReadReq_mshr_miss_rate::total     0.010149                       # mshr miss rate for ReadReq accesses
system.cpu.dcache.ReadReq_avg_mshr_miss_latency::.cpu.data 16486.152242                       # average ReadReq mshr miss latency
system.cpu.dcache.ReadReq_avg_mshr_miss_latency::total 16486.152242                       # average ReadReq mshr miss latency
system.cpu.dcache.WriteReq_hits::.cpu.data     10598363                       # number of WriteReq hits
system.cpu.dcache.WriteReq_hits::total       10598363                       # number of WriteReq hits
system.cpu.dcache.WriteReq_misses::.cpu.data       351738                       # number of WriteReq misses
system.cpu.dcache.WriteReq_misses::total       351738                       # number of WriteReq misses
system.cpu.dcache.WriteReq_miss_latency::.cpu.data  13570570179                       # number of WriteReq miss cycles
system.cpu.dcache.WriteReq_miss_latency::total  13570570179                       # number of WriteReq miss cycles
system.cpu.dcache.WriteReq_accesses::.cpu.data     10950101                       # number of WriteReq accesses(hits+misses)
system.cpu.dcache.WriteReq_accesses::total     10950101                       # number of WriteReq accesses(hits+misses)
system.cpu.dcache.WriteReq_miss_rate::.cpu.data     0.032122                       # miss rate for WriteReq accesses
system.cpu.dcache.WriteReq_miss_rate::total     0.032122                       # miss rate for WriteReq accesses
system.cpu.dcache.WriteReq_avg_miss_latency::.cpu.data 38581.473082                       # average WriteReq miss latency
system.cpu.dcache.WriteReq_avg_miss_latency::total 38581.473082                       # average WriteReq miss latency
system.cpu.dcache.WriteReq_mshr_hits::.cpu.data        65402                       # number of WriteReq MSHR hits
system.cpu.dcache.WriteReq_mshr_hits::total        65402                       # number of WriteReq MSHR hits
system.cpu.dcache.WriteReq_mshr_misses::.cpu.data       286336                       # number of WriteReq MSHR misses
system.cpu.dcache.WriteReq_mshr_misses::total       286336                       # number of WriteReq MSHR misses
system.cpu.dcache.WriteReq_mshr_miss_latency::.cpu.data  11839206942                       # number of WriteReq MSHR miss cycles
system.cpu.dcache.WriteReq_mshr_miss_latency::total  11839206942                       # number of WriteReq MSHR miss cycles
system.cpu.dcache.WriteReq_mshr_miss_rate::.cpu.data     0.026149                       # mshr miss rate for WriteReq accesses
system.cpu.dcache.WriteReq_mshr_miss_rate::total     0.026149                       # mshr miss rate for WriteReq accesses
system.cpu.dcache.WriteReq_avg_mshr_miss_latency::.cpu.data 41347.252675                       # average WriteReq mshr miss latency
system.cpu.dcache.WriteReq_avg_mshr_miss_latency::total 41347.252675                       # average WriteReq mshr miss latency
system.cpu.dcache.SoftPFReq_hits::.cpu.data          506                       # number of SoftPFReq hits
system.cpu.dcache.SoftPFReq_hits::total           506                       # number of SoftPFReq hits
system.cpu.dcache.SoftPFReq_misses::.cpu.data         7911                       # number of SoftPFReq misses
system.cpu.dcache.SoftPFReq_misses::total         7911                       # number of SoftPFReq misses
system.cpu.dcache.SoftPFReq_accesses::.cpu.data         8417                       # number of SoftPFReq accesses(hits+misses)
system.cpu.dcache.SoftPFReq_accesses::total         8417                       # number of SoftPFReq accesses(hits+misses)
system.cpu.dcache.SoftPFReq_miss_rate::.cpu.data     0.939884                       # miss rate for SoftPFReq accesses
system.cpu.dcache.SoftPFReq_miss_rate::total     0.939884                       # miss rate for SoftPFReq accesses
system.cpu.dcache.SoftPFReq_mshr_misses::.cpu.data         7906                       # number of SoftPFReq MSHR misses
system.cpu.dcache.SoftPFReq_mshr_misses::total         7906                       # number of SoftPFReq MSHR misses
system.cpu.dcache.SoftPFReq_mshr_miss_latency::.cpu.data    594053684                       # number of SoftPFReq MSHR miss cycles
system.cpu.dcache.SoftPFReq_mshr_miss_latency::total    594053684                       # number of SoftPFReq MSHR miss cycles
system.cpu.dcache.SoftPFReq_mshr_miss_rate::.cpu.data     0.939290                       # mshr miss rate for SoftPFReq accesses
system.cpu.dcache.SoftPFReq_mshr_miss_rate::total     0.939290                       # mshr miss rate for SoftPFReq accesses
system.cpu.dcache.SoftPFReq_avg_mshr_miss_latency::.cpu.data 75139.600810                       # average SoftPFReq mshr miss latency
system.cpu.dcache.SoftPFReq_avg_mshr_miss_latency::total 75139.600810                       # average SoftPFReq mshr miss latency
system.cpu.dcache.LoadLockedReq_hits::.cpu.data           38                       # number of LoadLockedReq hits
system.cpu.dcache.LoadLockedReq_hits::total           38                       # number of LoadLockedReq hits
system.cpu.dcache.LoadLockedReq_accesses::.cpu.data           38                       # number of LoadLockedReq accesses(hits+misses)
system.cpu.dcache.LoadLockedReq_accesses::total           38                       # number of LoadLockedReq accesses(hits+misses)
system.cpu.dcache.StoreCondReq_hits::.cpu.data           38                       # number of StoreCondReq hits
system.cpu.dcache.StoreCondReq_hits::total           38                       # number of StoreCondReq hits
system.cpu.dcache.StoreCondReq_accesses::.cpu.data           38                       # number of StoreCondReq accesses(hits+misses)
system.cpu.dcache.StoreCondReq_accesses::total           38                       # number of StoreCondReq accesses(hits+misses)
system.cpu.dcache.tags.pwrStateResidencyTicks::UNDEFINED  57996355590                       # Cumulative time (in ticks) in various power states
system.cpu.dcache.tags.tagsinuse          1004.442806                       # Cycle average of tags in use
system.cpu.dcache.tags.total_refs            52014009                       # Total number of references to valid blocks.
system.cpu.dcache.tags.sampled_refs            711583                       # Sample count of references to valid blocks.
system.cpu.dcache.tags.avg_refs             73.096194                       # Average number of references to valid blocks.
system.cpu.dcache.tags.warmup_cycle            159174                       # Cycle when the warmup percentage was hit.
system.cpu.dcache.tags.occ_blocks::.cpu.data  1004.442806                       # Average occupied blocks per requestor
system.cpu.dcache.tags.occ_percent::.cpu.data     0.980901                       # Average percentage of cache occupancy
system.cpu.dcache.tags.occ_percent::total     0.980901                       # Average percentage of cache occupancy
system.cpu.dcache.tags.occ_task_id_blocks::1024         1024                       # Occupied blocks per task id
system.cpu.dcache.tags.age_task_id_blocks_1024::0          262                       # Occupied blocks per task id
system.cpu.dcache.tags.age_task_id_blocks_1024::1          532                       # Occupied blocks per task id
system.cpu.dcache.tags.age_task_id_blocks_1024::2          228                       # Occupied blocks per task id
system.cpu.dcache.tags.age_task_id_blocks_1024::3            2                       # Occupied blocks per task id
system.cpu.dcache.tags.occ_task_id_percent::1024            1                       # Percentage of cache occupancy per task id
system.cpu.dcache.tags.tag_accesses         104871711                       # Number of tag accesses
system.cpu.dcache.tags.data_accesses        104871711                       # Number of data accesses
system.cpu.itb.walker.pwrStateResidencyTicks::UNDEFINED  57996355590                       # Cumulative time (in ticks) in various power states
system.cpu.itb.stage2_mmu.stage2_tlb.walker.pwrStateResidencyTicks::UNDEFINED  57996355590                       # Cumulative time (in ticks) in various power states

---------- End Simulation Statistics   ----------
